<?xml version="1.0" encoding="UTF-8"?>

<!-- generated on 2022-01-15 14:18:32 by Eclipse SUMO netedit Version 1.11.0
-->

<routes xmlns:xsi="http://www.w3.org/2001/XMLSchema-instance" xsi:noNamespaceSchemaLocation="http://sumo.dlr.de/xsd/routes_file.xsd">
    <route edges="E0 E1" color="yellow" id="route_0"/>
    <trip id="vehicle_0" depart="0.00" from="E0" to="E1"/>
    <vehicle id="vehicle_1" depart="0.00" route="route_0"/>
    <vehicle id="vehicle_2" depart="0.00" route="route_0"/>
    <vehicle id="vehicle_3" depart="0.00" route="route_0"/>
    <vehicle id="vehicle_4" depart="0.00" route="route_0"/>
    <vehicle id="vehicle_5" depart="0.00" route="route_0"/>
    <vehicle id="vehicle_6" depart="0.00" route="route_0"/>
</routes>
