<?xml version="1.0" encoding="UTF-8"?>

<!-- generated on 01/15/22 14:15:08 by Eclipse SUMO GUI Version 1.8.0
-->

<configuration xmlns:xsi="http://www.w3.org/2001/XMLSchema-instance" xsi:noNamespaceSchemaLocation="http://sumo.dlr.de/xsd/sumoConfiguration.xsd">

    <input>
        <net-file value="E:\Sumo\doc\tutorial\helloworld\helloworld.net.xml"/>
        <route-files value="E:\Sumo\doc\tutorial\helloworld\helloworld.rou.xml"/>
    </input>

</configuration>
